Program Version,EnergyPlus, Version 9.0.1-bb7ca4f0da, YMD=2021.11.04 01:48
