Program Version,EnergyPlus, Version 9.5.0-de239b2e5f, YMD=2021.10.10 02:15,
   ************* Beginning Zone Sizing Calculations
   ** Warning ** ProcessScheduleInput: Schedule:Day:Interval="ECONOMIZER MAX OA FRACTION 70 PCT DEFAULT", Blank Schedule Type Limits Name input -- will not be validated.
   ** Warning ** ProcessScheduleInput: Schedule:Day:Interval="OFFICEMEDIUM HVACOPERATIONSCHD DEFAULT", Blank Schedule Type Limits Name input -- will not be validated.
   ** Warning ** ProcessScheduleInput: Schedule:Day:Interval="OFFICEMEDIUM HVACOPERATIONSCHD SMRDSN|WKDY DAY", Blank Schedule Type Limits Name input -- will not be validated.
   ** Warning ** ProcessScheduleInput: Schedule:Day:Interval="OFFICEMEDIUM HVACOPERATIONSCHD SUMMER DESIGN DAY", Blank Schedule Type Limits Name input -- will not be validated.
   ** Warning ** ProcessScheduleInput: Schedule:Day:Interval="OFFICEMEDIUM HVACOPERATIONSCHD WINTER DESIGN DAY", Blank Schedule Type Limits Name input -- will not be validated.
   ** Warning ** ProcessScheduleInput: Schedule:Day:Interval="OFFICEMEDIUM HVACOPERATIONSCHD WNTRDSN|SAT DAY", Blank Schedule Type Limits Name input -- will not be validated.
   ** Warning ** ProcessScheduleInput: Schedule:Day:Interval="OFFICEMEDIUM_BUSINESS_SCH DEFAULT", Blank Schedule Type Limits Name input -- will not be validated.
   ** Warning ** ProcessScheduleInput: Schedule:Day:Interval="OFFICEMEDIUM_BUSINESS_SCH SUMMER DESIGN DAY", Blank Schedule Type Limits Name input -- will not be validated.
   ** Warning ** ProcessScheduleInput: Schedule:Day:Interval="OFFICEMEDIUM_BUSINESS_SCH WINTER DESIGN DAY", Blank Schedule Type Limits Name input -- will not be validated.
   ** Warning ** ProcessScheduleInput: Schedule:Day:Interval="OFFICEMEDIUM_BUSINESS_SCH WKDY DAY", Blank Schedule Type Limits Name input -- will not be validated.
   ** Warning ** ProcessScheduleInput: Schedule:Year="OFFICEMEDIUM HVACOPERATIONSCHD", Blank Schedule Type Limits Name input -- will not be validated.
   ** Warning ** ProcessScheduleInput: Schedule:Year="OFFICEMEDIUM_BUSINESS_SCH", Blank Schedule Type Limits Name input -- will not be validated.
   ** Warning ** ProcessScheduleInput: Schedule:Constant="ALWAYS OFF DISCRETE", Blank Schedule Type Limits Name input -- will not be validated.
   ** Warning ** ProcessScheduleInput: Schedule:Constant="ALWAYS ON CONTINUOUS", Blank Schedule Type Limits Name input -- will not be validated.
   ** Warning ** CheckUsedConstructions: There are 10 nominally unused constructions in input.
   **   ~~~   ** For explicit details on each unused construction, use Output:Diagnostics,DisplayExtraWarnings;
   ** Warning ** Seems like you already tried to get a Handle on this Actuator 1times.
   **   ~~~   ** Occurred for componentType='LIGHTS', controlType='ELECTRICITY RATE', uniqueKey='PERIMETER_MID_ZN_3 ZN OFFICE WHOLEBUILDING - MD OFFICE LIGHTS'.
   **   ~~~   ** You should take note that there is a risk of overwritting.
   ** Warning ** Seems like you already tried to get a Handle on this Actuator 2times.
   **   ~~~   ** Occurred for componentType='LIGHTS', controlType='ELECTRICITY RATE', uniqueKey='PERIMETER_MID_ZN_3 ZN OFFICE WHOLEBUILDING - MD OFFICE LIGHTS'.
   **   ~~~   ** You should take note that there is a risk of overwritting.
   ** Warning ** Seems like you already tried to get a Handle on this Actuator 3times.
   **   ~~~   ** Occurred for componentType='LIGHTS', controlType='ELECTRICITY RATE', uniqueKey='PERIMETER_MID_ZN_3 ZN OFFICE WHOLEBUILDING - MD OFFICE LIGHTS'.
   **   ~~~   ** You should take note that there is a risk of overwritting.
   ** Warning ** Seems like you already tried to get a Handle on this Actuator 4times.
   **   ~~~   ** Occurred for componentType='LIGHTS', controlType='ELECTRICITY RATE', uniqueKey='PERIMETER_MID_ZN_3 ZN OFFICE WHOLEBUILDING - MD OFFICE LIGHTS'.
   **   ~~~   ** You should take note that there is a risk of overwritting.
   ** Warning ** Seems like you already tried to get a Handle on this Actuator 5times.
   **   ~~~   ** Occurred for componentType='LIGHTS', controlType='ELECTRICITY RATE', uniqueKey='PERIMETER_MID_ZN_3 ZN OFFICE WHOLEBUILDING - MD OFFICE LIGHTS'.
   **   ~~~   ** You should take note that there is a risk of overwritting.
   ** Warning ** Seems like you already tried to get a Handle on this Actuator 6times.
   **   ~~~   ** Occurred for componentType='LIGHTS', controlType='ELECTRICITY RATE', uniqueKey='PERIMETER_MID_ZN_3 ZN OFFICE WHOLEBUILDING - MD OFFICE LIGHTS'.
   **   ~~~   ** You should take note that there is a risk of overwritting.
   ** Warning ** Seems like you already tried to get a Handle on this Actuator 7times.
   **   ~~~   ** Occurred for componentType='LIGHTS', controlType='ELECTRICITY RATE', uniqueKey='PERIMETER_MID_ZN_3 ZN OFFICE WHOLEBUILDING - MD OFFICE LIGHTS'.
   **   ~~~   ** You should take note that there is a risk of overwritting.
   ** Warning ** Seems like you already tried to get a Handle on this Actuator 8times.
   **   ~~~   ** Occurred for componentType='LIGHTS', controlType='ELECTRICITY RATE', uniqueKey='PERIMETER_MID_ZN_3 ZN OFFICE WHOLEBUILDING - MD OFFICE LIGHTS'.
   **   ~~~   ** You should take note that there is a risk of overwritting.
   ** Warning ** Seems like you already tried to get a Handle on this Actuator 9times.
   **   ~~~   ** Occurred for componentType='LIGHTS', controlType='ELECTRICITY RATE', uniqueKey='PERIMETER_MID_ZN_3 ZN OFFICE WHOLEBUILDING - MD OFFICE LIGHTS'.
   **   ~~~   ** You should take note that there is a risk of overwritting.
   ** Warning ** Seems like you already tried to get a Handle on this Actuator 10times.
   **   ~~~   ** Occurred for componentType='LIGHTS', controlType='ELECTRICITY RATE', uniqueKey='PERIMETER_MID_ZN_3 ZN OFFICE WHOLEBUILDING - MD OFFICE LIGHTS'.
   **   ~~~   ** You should take note that there is a risk of overwritting.
   ** Warning ** Seems like you already tried to get a Handle on this Actuator 11times.
   **   ~~~   ** Occurred for componentType='LIGHTS', controlType='ELECTRICITY RATE', uniqueKey='PERIMETER_MID_ZN_3 ZN OFFICE WHOLEBUILDING - MD OFFICE LIGHTS'.
   **   ~~~   ** You should take note that there is a risk of overwritting.
   ** Warning ** Seems like you already tried to get a Handle on this Actuator 12times.
   **   ~~~   ** Occurred for componentType='LIGHTS', controlType='ELECTRICITY RATE', uniqueKey='PERIMETER_MID_ZN_3 ZN OFFICE WHOLEBUILDING - MD OFFICE LIGHTS'.
   **   ~~~   ** You should take note that there is a risk of overwritting.
   ** Warning ** Seems like you already tried to get a Handle on this Actuator 13times.
   **   ~~~   ** Occurred for componentType='LIGHTS', controlType='ELECTRICITY RATE', uniqueKey='PERIMETER_MID_ZN_3 ZN OFFICE WHOLEBUILDING - MD OFFICE LIGHTS'.
   **   ~~~   ** You should take note that there is a risk of overwritting.
   ** Warning ** Seems like you already tried to get a Handle on this Actuator 14times.
   **   ~~~   ** Occurred for componentType='LIGHTS', controlType='ELECTRICITY RATE', uniqueKey='PERIMETER_MID_ZN_3 ZN OFFICE WHOLEBUILDING - MD OFFICE LIGHTS'.
   **   ~~~   ** You should take note that there is a risk of overwritting.
   ** Warning ** Seems like you already tried to get a Handle on this Actuator 1times.
   **   ~~~   ** Occurred for componentType='SCHEDULE:YEAR', controlType='SCHEDULE VALUE', uniqueKey='OFFICEMEDIUM CLGSETP_SCH_YES_OPTIMUM'.
   **   ~~~   ** You should take note that there is a risk of overwritting.
   ** Warning ** Seems like you already tried to get a Handle on this Actuator 1times.
   **   ~~~   ** Occurred for componentType='SCHEDULE:YEAR', controlType='SCHEDULE VALUE', uniqueKey='OFFICEMEDIUM HTGSETP_SCH_YES_OPTIMUM'.
   **   ~~~   ** You should take note that there is a risk of overwritting.
   ** Warning ** Seems like you already tried to get a Handle on this Actuator 2times.
   **   ~~~   ** Occurred for componentType='SCHEDULE:YEAR', controlType='SCHEDULE VALUE', uniqueKey='OFFICEMEDIUM CLGSETP_SCH_YES_OPTIMUM'.
   **   ~~~   ** You should take note that there is a risk of overwritting.
   ** Warning ** Seems like you already tried to get a Handle on this Actuator 2times.
   **   ~~~   ** Occurred for componentType='SCHEDULE:YEAR', controlType='SCHEDULE VALUE', uniqueKey='OFFICEMEDIUM HTGSETP_SCH_YES_OPTIMUM'.
   **   ~~~   ** You should take note that there is a risk of overwritting.
   ** Warning ** GetDaylightingControls: Fraction of Zone controlled by the Daylighting reference points is < 1.0.
   **   ~~~   ** ..discovered in "Daylighting:Controls" for Zone="PERIMETER_BOT_ZN_1 ZN", only 0.523 of the zone is controlled.
   ** Warning ** GetDaylightingControls: Fraction of Zone controlled by the Daylighting reference points is < 1.0.
   **   ~~~   ** ..discovered in "Daylighting:Controls" for Zone="PERIMETER_BOT_ZN_2 ZN", only 0.523 of the zone is controlled.
   ** Warning ** GetDaylightingControls: Fraction of Zone controlled by the Daylighting reference points is < 1.0.
   **   ~~~   ** ..discovered in "Daylighting:Controls" for Zone="PERIMETER_BOT_ZN_3 ZN", only 0.523 of the zone is controlled.
   ** Warning ** GetDaylightingControls: Fraction of Zone controlled by the Daylighting reference points is < 1.0.
   **   ~~~   ** ..discovered in "Daylighting:Controls" for Zone="PERIMETER_BOT_ZN_4 ZN", only 0.523 of the zone is controlled.
   ** Warning ** GetDaylightingControls: Fraction of Zone controlled by the Daylighting reference points is < 1.0.
   **   ~~~   ** ..discovered in "Daylighting:Controls" for Zone="PERIMETER_MID_ZN_1 ZN", only 0.523 of the zone is controlled.
   ** Warning ** GetDaylightingControls: Fraction of Zone controlled by the Daylighting reference points is < 1.0.
   **   ~~~   ** ..discovered in "Daylighting:Controls" for Zone="PERIMETER_MID_ZN_2 ZN", only 0.523 of the zone is controlled.
   ** Warning ** GetDaylightingControls: Fraction of Zone controlled by the Daylighting reference points is < 1.0.
   **   ~~~   ** ..discovered in "Daylighting:Controls" for Zone="PERIMETER_MID_ZN_3 ZN", only 0.523 of the zone is controlled.
   ** Warning ** GetDaylightingControls: Fraction of Zone controlled by the Daylighting reference points is < 1.0.
   **   ~~~   ** ..discovered in "Daylighting:Controls" for Zone="PERIMETER_MID_ZN_4 ZN", only 0.523 of the zone is controlled.
   ** Warning ** GetDaylightingControls: Fraction of Zone controlled by the Daylighting reference points is < 1.0.
   **   ~~~   ** ..discovered in "Daylighting:Controls" for Zone="PERIMETER_TOP_ZN_1 ZN", only 0.523 of the zone is controlled.
   ** Warning ** GetDaylightingControls: Fraction of Zone controlled by the Daylighting reference points is < 1.0.
   **   ~~~   ** ..discovered in "Daylighting:Controls" for Zone="PERIMETER_TOP_ZN_2 ZN", only 0.523 of the zone is controlled.
   ** Warning ** GetDaylightingControls: Fraction of Zone controlled by the Daylighting reference points is < 1.0.
   **   ~~~   ** ..discovered in "Daylighting:Controls" for Zone="PERIMETER_TOP_ZN_3 ZN", only 0.523 of the zone is controlled.
   ** Warning ** GetDaylightingControls: Fraction of Zone controlled by the Daylighting reference points is < 1.0.
   **   ~~~   ** ..discovered in "Daylighting:Controls" for Zone="PERIMETER_TOP_ZN_4 ZN", only 0.523 of the zone is controlled.
   ************* Beginning System Sizing Calculations
   ** Warning ** Since Zone Minimum Air Flow Input Method = CONSTANT, input for Fixed Minimum Air Flow Rate will be ignored.
   **   ~~~   ** Occurs in AirTerminal:SingleDuct:VAV:Reheat = CORE_BOTTOM ZN VAV TERMINAL
   ** Warning ** Since Zone Minimum Air Flow Input Method = CONSTANT, input for Fixed Minimum Air Flow Rate will be ignored.
   **   ~~~   ** Occurs in AirTerminal:SingleDuct:VAV:Reheat = CORE_MID ZN VAV TERMINAL
   ** Warning ** Since Zone Minimum Air Flow Input Method = CONSTANT, input for Fixed Minimum Air Flow Rate will be ignored.
   **   ~~~   ** Occurs in AirTerminal:SingleDuct:VAV:Reheat = CORE_TOP ZN VAV TERMINAL
   ** Warning ** Since Zone Minimum Air Flow Input Method = CONSTANT, input for Fixed Minimum Air Flow Rate will be ignored.
   **   ~~~   ** Occurs in AirTerminal:SingleDuct:VAV:Reheat = PERIMETER_BOT_ZN_1 ZN VAV TERMINAL
   ** Warning ** Since Zone Minimum Air Flow Input Method = CONSTANT, input for Fixed Minimum Air Flow Rate will be ignored.
   **   ~~~   ** Occurs in AirTerminal:SingleDuct:VAV:Reheat = PERIMETER_BOT_ZN_2 ZN VAV TERMINAL
   ** Warning ** Since Zone Minimum Air Flow Input Method = CONSTANT, input for Fixed Minimum Air Flow Rate will be ignored.
   **   ~~~   ** Occurs in AirTerminal:SingleDuct:VAV:Reheat = PERIMETER_BOT_ZN_3 ZN VAV TERMINAL
   ** Warning ** Since Zone Minimum Air Flow Input Method = CONSTANT, input for Fixed Minimum Air Flow Rate will be ignored.
   **   ~~~   ** Occurs in AirTerminal:SingleDuct:VAV:Reheat = PERIMETER_BOT_ZN_4 ZN VAV TERMINAL
   ** Warning ** Since Zone Minimum Air Flow Input Method = CONSTANT, input for Fixed Minimum Air Flow Rate will be ignored.
   **   ~~~   ** Occurs in AirTerminal:SingleDuct:VAV:Reheat = PERIMETER_MID_ZN_1 ZN VAV TERMINAL
   ** Warning ** Since Zone Minimum Air Flow Input Method = CONSTANT, input for Fixed Minimum Air Flow Rate will be ignored.
   **   ~~~   ** Occurs in AirTerminal:SingleDuct:VAV:Reheat = PERIMETER_MID_ZN_2 ZN VAV TERMINAL
   ** Warning ** Since Zone Minimum Air Flow Input Method = CONSTANT, input for Fixed Minimum Air Flow Rate will be ignored.
   **   ~~~   ** Occurs in AirTerminal:SingleDuct:VAV:Reheat = PERIMETER_MID_ZN_3 ZN VAV TERMINAL
   ** Warning ** Since Zone Minimum Air Flow Input Method = CONSTANT, input for Fixed Minimum Air Flow Rate will be ignored.
   **   ~~~   ** Occurs in AirTerminal:SingleDuct:VAV:Reheat = PERIMETER_MID_ZN_4 ZN VAV TERMINAL
   ** Warning ** Since Zone Minimum Air Flow Input Method = CONSTANT, input for Fixed Minimum Air Flow Rate will be ignored.
   **   ~~~   ** Occurs in AirTerminal:SingleDuct:VAV:Reheat = PERIMETER_TOP_ZN_1 ZN VAV TERMINAL
   ** Warning ** Since Zone Minimum Air Flow Input Method = CONSTANT, input for Fixed Minimum Air Flow Rate will be ignored.
   **   ~~~   ** Occurs in AirTerminal:SingleDuct:VAV:Reheat = PERIMETER_TOP_ZN_2 ZN VAV TERMINAL
   ** Warning ** Since Zone Minimum Air Flow Input Method = CONSTANT, input for Fixed Minimum Air Flow Rate will be ignored.
   **   ~~~   ** Occurs in AirTerminal:SingleDuct:VAV:Reheat = PERIMETER_TOP_ZN_3 ZN VAV TERMINAL
   ** Warning ** Since Zone Minimum Air Flow Input Method = CONSTANT, input for Fixed Minimum Air Flow Rate will be ignored.
   **   ~~~   ** Occurs in AirTerminal:SingleDuct:VAV:Reheat = PERIMETER_TOP_ZN_4 ZN VAV TERMINAL
   ************* Beginning Plant Sizing Calculations
   ** Warning ** GetOAControllerInputs: Controller:MechanicalVentilation="5 ZONE PVAV VENTILATION CONTROLLER
   **   ~~~   ** Cannot locate a matching DesignSpecification:ZoneAirDistribution object for Zone="CORE_BOTTOM ZN".
   **   ~~~   ** Using default zone air distribution effectiveness of 1.0 for heating and cooling.
   ** Warning ** GetOAControllerInputs: Controller:MechanicalVentilation="5 ZONE PVAV VENTILATION CONTROLLER
   **   ~~~   ** Cannot locate a matching DesignSpecification:ZoneAirDistribution object for Zone="PERIMETER_BOT_ZN_1 ZN".
   **   ~~~   ** Using default zone air distribution effectiveness of 1.0 for heating and cooling.
   ** Warning ** GetOAControllerInputs: Controller:MechanicalVentilation="5 ZONE PVAV VENTILATION CONTROLLER
   **   ~~~   ** Cannot locate a matching DesignSpecification:ZoneAirDistribution object for Zone="PERIMETER_BOT_ZN_2 ZN".
   **   ~~~   ** Using default zone air distribution effectiveness of 1.0 for heating and cooling.
   ** Warning ** GetOAControllerInputs: Controller:MechanicalVentilation="5 ZONE PVAV VENTILATION CONTROLLER
   **   ~~~   ** Cannot locate a matching DesignSpecification:ZoneAirDistribution object for Zone="PERIMETER_BOT_ZN_3 ZN".
   **   ~~~   ** Using default zone air distribution effectiveness of 1.0 for heating and cooling.
   ** Warning ** GetOAControllerInputs: Controller:MechanicalVentilation="5 ZONE PVAV VENTILATION CONTROLLER
   **   ~~~   ** Cannot locate a matching DesignSpecification:ZoneAirDistribution object for Zone="PERIMETER_BOT_ZN_4 ZN".
   **   ~~~   ** Using default zone air distribution effectiveness of 1.0 for heating and cooling.
   ** Warning ** GetOAControllerInputs: Controller:MechanicalVentilation="5 ZONE PVAV 1 VENTILATION CONTROLLER
   **   ~~~   ** Cannot locate a matching DesignSpecification:ZoneAirDistribution object for Zone="CORE_MID ZN".
   **   ~~~   ** Using default zone air distribution effectiveness of 1.0 for heating and cooling.
   ** Warning ** GetOAControllerInputs: Controller:MechanicalVentilation="5 ZONE PVAV 1 VENTILATION CONTROLLER
   **   ~~~   ** Cannot locate a matching DesignSpecification:ZoneAirDistribution object for Zone="PERIMETER_MID_ZN_1 ZN".
   **   ~~~   ** Using default zone air distribution effectiveness of 1.0 for heating and cooling.
   ** Warning ** GetOAControllerInputs: Controller:MechanicalVentilation="5 ZONE PVAV 1 VENTILATION CONTROLLER
   **   ~~~   ** Cannot locate a matching DesignSpecification:ZoneAirDistribution object for Zone="PERIMETER_MID_ZN_2 ZN".
   **   ~~~   ** Using default zone air distribution effectiveness of 1.0 for heating and cooling.
   ** Warning ** GetOAControllerInputs: Controller:MechanicalVentilation="5 ZONE PVAV 1 VENTILATION CONTROLLER
   **   ~~~   ** Cannot locate a matching DesignSpecification:ZoneAirDistribution object for Zone="PERIMETER_MID_ZN_3 ZN".
   **   ~~~   ** Using default zone air distribution effectiveness of 1.0 for heating and cooling.
   ** Warning ** GetOAControllerInputs: Controller:MechanicalVentilation="5 ZONE PVAV 1 VENTILATION CONTROLLER
   **   ~~~   ** Cannot locate a matching DesignSpecification:ZoneAirDistribution object for Zone="PERIMETER_MID_ZN_4 ZN".
   **   ~~~   ** Using default zone air distribution effectiveness of 1.0 for heating and cooling.
   ** Warning ** GetOAControllerInputs: Controller:MechanicalVentilation="5 ZONE PVAV 2 VENTILATION CONTROLLER
   **   ~~~   ** Cannot locate a matching DesignSpecification:ZoneAirDistribution object for Zone="CORE_TOP ZN".
   **   ~~~   ** Using default zone air distribution effectiveness of 1.0 for heating and cooling.
   ** Warning ** GetOAControllerInputs: Controller:MechanicalVentilation="5 ZONE PVAV 2 VENTILATION CONTROLLER
   **   ~~~   ** Cannot locate a matching DesignSpecification:ZoneAirDistribution object for Zone="PERIMETER_TOP_ZN_1 ZN".
   **   ~~~   ** Using default zone air distribution effectiveness of 1.0 for heating and cooling.
   ** Warning ** GetOAControllerInputs: Controller:MechanicalVentilation="5 ZONE PVAV 2 VENTILATION CONTROLLER
   **   ~~~   ** Cannot locate a matching DesignSpecification:ZoneAirDistribution object for Zone="PERIMETER_TOP_ZN_2 ZN".
   **   ~~~   ** Using default zone air distribution effectiveness of 1.0 for heating and cooling.
   ** Warning ** GetOAControllerInputs: Controller:MechanicalVentilation="5 ZONE PVAV 2 VENTILATION CONTROLLER
   **   ~~~   ** Cannot locate a matching DesignSpecification:ZoneAirDistribution object for Zone="PERIMETER_TOP_ZN_3 ZN".
   **   ~~~   ** Using default zone air distribution effectiveness of 1.0 for heating and cooling.
   ** Warning ** GetOAControllerInputs: Controller:MechanicalVentilation="5 ZONE PVAV 2 VENTILATION CONTROLLER
   **   ~~~   ** Cannot locate a matching DesignSpecification:ZoneAirDistribution object for Zone="PERIMETER_TOP_ZN_4 ZN".
   **   ~~~   ** Using default zone air distribution effectiveness of 1.0 for heating and cooling.
   ************* Testing Individual Branch Integrity
   ************* All Branches passed integrity testing
   ************* Testing Individual Supply Air Path Integrity
   ************* All Supply Air Paths passed integrity testing
   ************* Testing Individual Return Air Path Integrity
   ************* All Return Air Paths passed integrity testing
   ************* No node connection errors were found.
   ************* Beginning Simulation
   ** Warning ** The resource referenced by LifeCycleCost:UsePriceEscalation= "U.S. AVG  COMMERCIAL-ELECTRICITY" has no energy cost. 
   **   ~~~   ** ... It is likely that the wrong resource is used. The resource should match the meter used in Utility:Tariff.
   ** Warning ** The resource referenced by LifeCycleCost:UsePriceEscalation= "U.S. AVG  COMMERCIAL-DISTILLATE OIL" has no energy cost. 
   **   ~~~   ** ... It is likely that the wrong resource is used. The resource should match the meter used in Utility:Tariff.
   ** Warning ** The resource referenced by LifeCycleCost:UsePriceEscalation= "U.S. AVG  COMMERCIAL-RESIDUAL OIL" has no energy cost. 
   **   ~~~   ** ... It is likely that the wrong resource is used. The resource should match the meter used in Utility:Tariff.
   ** Warning ** The resource referenced by LifeCycleCost:UsePriceEscalation= "U.S. AVG  COMMERCIAL-NATURAL GAS" has no energy cost. 
   **   ~~~   ** ... It is likely that the wrong resource is used. The resource should match the meter used in Utility:Tariff.
   ** Warning ** The resource referenced by LifeCycleCost:UsePriceEscalation= "U.S. AVG  COMMERCIAL-COAL" has no energy cost. 
   **   ~~~   ** ... It is likely that the wrong resource is used. The resource should match the meter used in Utility:Tariff.
   ************* Simulation Error Summary *************
   ************* There are 2 unused schedules in input.
   ************* There are 2 unused week schedules in input.
   ************* There are 9 unused day schedules in input.
   ************* Use Output:Diagnostics,DisplayUnusedSchedules; to see them.
   *************
   ************* ===== Final Error Summary =====
   ************* The following error categories occurred.  Consider correcting or noting.
   ************* Nominally Unused Constructions
   ************* ..The nominally unused constructions warning is provided to alert you to potential conditions that can cause
   ************* ..extra time during simulation. Each construction is calculated by the algorithm indicated in the HeatBalanceAlgorithm
   ************* ..object. You may remove the constructions indicated (when you use the DisplayExtraWarnings option).
   *************
   ************* EnergyPlus Warmup Error Summary. During Warmup: 0 Warning; 0 Severe Errors.
   ************* EnergyPlus Sizing Error Summary. During Sizing: 60 Warning; 0 Severe Errors.
   ************* EnergyPlus Completed Successfully-- 80 Warning; 0 Severe Errors; Elapsed Time=00hr 00min  2.90sec
